Circuit: * C:\Users\Gustavo\Desktop\Draft2.asc


Date: Tue Nov 28 01:11:04 2017
Total elapsed time: 0.071 seconds.

tnom = 27
temp = 27
method = trap
totiter = 0
traniter = 0
tranpoints = 0
accept = 0
rejected = 0
matrix size = 4
fillins = 1
solver = Normal

